Version 4.1
SHEET 1 1344 732
WIRE 544 64 -64 64
WIRE 896 64 544 64
WIRE 976 80 848 80
WIRE 608 96 496 96
WIRE 896 96 896 64
WIRE 544 112 544 64
WIRE 848 112 848 80
WIRE 864 112 848 112
WIRE 496 128 496 96
WIRE 512 128 496 128
WIRE 976 128 976 80
WIRE 976 128 928 128
WIRE 1008 128 976 128
WIRE 1136 128 1088 128
WIRE 1264 128 1200 128
WIRE 608 144 608 96
WIRE 608 144 576 144
WIRE 656 144 608 144
WIRE 768 144 736 144
WIRE 864 144 768 144
WIRE 208 160 112 160
WIRE 352 160 288 160
WIRE 512 160 352 160
WIRE -352 208 -352 144
WIRE -208 208 -208 144
WIRE -64 208 -64 64
WIRE 112 208 112 160
WIRE 1264 208 1264 128
WIRE 352 224 352 160
WIRE 768 224 768 144
WIRE -352 368 -352 288
WIRE -208 368 -208 288
WIRE -208 368 -352 368
WIRE -64 368 -64 288
WIRE -64 368 -208 368
WIRE 112 368 112 288
WIRE 112 368 -64 368
WIRE 352 368 352 288
WIRE 352 368 112 368
WIRE 544 368 544 176
WIRE 544 368 352 368
WIRE 768 368 768 288
WIRE 768 368 544 368
WIRE 896 368 896 160
WIRE 896 368 768 368
WIRE 1264 368 1264 288
WIRE 1264 368 896 368
WIRE 112 416 112 368
FLAG 112 416 0
FLAG -352 144 AUDIO
FLAG -208 144 TIMER
SYMBOL voltage -352 192 R0
WINDOW 123 0 0 Left 0
WINDOW 39 0 0 Left 0
WINDOW 3 -137 123 Left 2
SYMATTR Value SINE(1.75 1.5 400)
SYMATTR InstName V2
SYMBOL voltage -64 192 R0
WINDOW 123 0 0 Left 0
WINDOW 39 0 0 Left 0
SYMATTR InstName V1
SYMATTR Value 5
SYMBOL res 304 144 R90
WINDOW 0 0 56 VBottom 2
WINDOW 3 32 56 VTop 2
SYMATTR InstName R1
SYMATTR Value 1k
SYMBOL cap 336 224 R0
WINDOW 0 24 56 Left 2
WINDOW 3 24 8 Left 2
SYMATTR InstName C1
SYMATTR Value 22n
SYMBOL cap 752 224 R0
SYMATTR InstName C2
SYMATTR Value 22n
SYMBOL res 752 128 R90
WINDOW 0 0 56 VBottom 2
WINDOW 3 32 56 VTop 2
SYMATTR InstName R2
SYMATTR Value 1k
SYMBOL OpAmps\\opamp2 544 80 R0
WINDOW 3 -85 112 Left 2
SYMATTR Value LMX58_LM2904
SYMATTR InstName U1
SYMBOL voltage -208 192 R0
WINDOW 3 -31 124 Left 2
WINDOW 123 0 0 Left 0
WINDOW 39 0 0 Left 0
SYMATTR Value PULSE(0 5 0 8u 8u 1p 16u)
SYMATTR InstName V3
SYMBOL bv 112 192 R0
WINDOW 3 10 125 Left 2
SYMATTR Value V=if(V(AUDIO) > V(TIMER), 5, 0)
SYMATTR InstName B1
SYMBOL OpAmps\\opamp2 896 64 R0
WINDOW 3 -85 112 Left 2
SYMATTR Value LMX58_LM2904
SYMATTR InstName U2
SYMBOL res 1104 112 R90
WINDOW 0 0 56 VBottom 2
WINDOW 3 32 56 VTop 2
SYMATTR InstName R3
SYMATTR Value 220
SYMBOL cap 1200 112 R90
WINDOW 0 0 32 VBottom 2
WINDOW 3 32 32 VTop 2
SYMATTR InstName C3
SYMATTR Value 10µ
SYMBOL res 1248 192 R0
SYMATTR InstName R4
SYMATTR Value 100k
TEXT 56 496 Left 2 !.tran 0 100m 0 1u startup
TEXT 56 536 Left 2 !.lib snom268c/lmx58_lm2904.lib
