Version 4.1
SHEET 1 2456 904
WIRE -352 -32 -432 -32
WIRE -272 -32 -352 -32
WIRE 256 -32 -272 -32
WIRE 704 -32 256 -32
WIRE 896 -32 768 -32
WIRE 1056 -32 976 -32
WIRE -352 0 -352 -32
WIRE -272 0 -272 -32
WIRE 1408 32 1376 32
WIRE 1520 32 1488 32
WIRE 1792 32 1744 32
WIRE 1888 32 1856 32
WIRE 2048 32 1888 32
WIRE 768 64 768 -32
WIRE 896 64 768 64
WIRE 1056 64 1056 -32
WIRE 1056 64 976 64
WIRE 704 80 704 -32
WIRE 816 80 704 80
WIRE 1456 80 816 80
WIRE 1968 80 1456 80
WIRE 256 96 256 -32
WIRE -432 112 -432 -32
WIRE 224 112 192 112
WIRE 816 112 816 80
WIRE 1968 112 1968 80
WIRE 384 128 288 128
WIRE 400 128 384 128
WIRE 528 128 464 128
WIRE 768 128 768 64
WIRE 768 128 608 128
WIRE 784 128 768 128
WIRE 1456 128 1456 80
WIRE 1888 128 1888 32
WIRE 1936 128 1888 128
WIRE -272 144 -272 80
WIRE -144 144 -272 144
WIRE 48 144 -64 144
WIRE 224 144 48 144
WIRE 1056 144 1056 64
WIRE 1056 144 848 144
WIRE 1152 144 1056 144
WIRE 1264 144 1216 144
WIRE 1376 144 1376 32
WIRE 1376 144 1344 144
WIRE 1424 144 1376 144
WIRE 2048 144 2048 32
WIRE 2048 144 2000 144
WIRE 784 160 592 160
WIRE 1520 160 1520 32
WIRE 1520 160 1488 160
WIRE 1632 160 1520 160
WIRE 1744 160 1744 32
WIRE 1744 160 1712 160
WIRE 1776 160 1744 160
WIRE 1888 160 1856 160
WIRE 1936 160 1888 160
WIRE 48 176 48 144
WIRE 1424 176 1376 176
WIRE 192 192 192 112
WIRE 384 192 384 128
WIRE 384 192 192 192
WIRE -352 208 -352 80
WIRE 592 208 592 160
WIRE 592 208 -352 208
WIRE 1376 208 1376 176
WIRE 1376 208 592 208
WIRE -352 240 -352 208
WIRE -272 240 -272 144
WIRE 1888 240 1888 160
WIRE 48 256 48 240
WIRE -432 368 -432 192
WIRE -352 368 -352 320
WIRE -352 368 -432 368
WIRE -272 368 -272 320
WIRE -272 368 -352 368
WIRE 48 368 48 336
WIRE 48 368 -272 368
WIRE 256 368 256 160
WIRE 256 368 48 368
WIRE 816 368 816 176
WIRE 816 368 256 368
WIRE 1456 368 1456 192
WIRE 1456 368 816 368
WIRE 1888 368 1888 304
WIRE 1888 368 1456 368
WIRE 1968 368 1968 176
WIRE 1968 368 1888 368
WIRE -272 416 -272 368
FLAG -272 416 0
SYMBOL voltage -432 96 R0
WINDOW 123 0 0 Left 0
WINDOW 39 0 0 Left 0
SYMATTR InstName V1
SYMATTR Value 5
SYMBOL voltage 48 240 R0
WINDOW 123 24 124 Left 2
WINDOW 39 0 0 Left 0
SYMATTR Value2 AC 1
SYMATTR InstName V2
SYMATTR Value SINE(0 0.1 1000)
SYMBOL res -288 -16 R0
SYMATTR InstName R1
SYMATTR Value 100k
SYMBOL res -288 224 R0
SYMATTR InstName R2
SYMATTR Value 100k
SYMBOL res -160 160 R270
WINDOW 0 32 56 VTop 2
WINDOW 3 0 56 VBottom 2
SYMATTR InstName R3
SYMATTR Value 1Meg
SYMBOL cap 64 240 R180
WINDOW 0 24 56 Left 2
WINDOW 3 24 8 Left 2
SYMATTR InstName C1
SYMATTR Value 10µ
SYMBOL OpAmps\\opamp2 256 64 R0
SYMATTR InstName U1
SYMATTR Value TL072
SYMBOL res 624 112 R90
WINDOW 0 0 56 VBottom 2
WINDOW 3 32 56 VTop 2
SYMATTR InstName R4
SYMATTR Value 10k
SYMBOL res 992 -48 R90
WINDOW 0 0 56 VBottom 2
WINDOW 3 32 56 VTop 2
SYMATTR InstName R5
SYMATTR Value 100k
SYMBOL res 992 48 R90
WINDOW 0 0 56 VBottom 2
WINDOW 3 32 56 VTop 2
SYMATTR InstName R6
SYMATTR Value {R_LDR}
SYMBOL cap 464 112 R90
WINDOW 0 0 32 VBottom 2
WINDOW 3 32 32 VTop 2
SYMATTR InstName C2
SYMATTR Value 10µ
SYMBOL res 1360 128 R90
WINDOW 0 0 56 VBottom 2
WINDOW 3 32 56 VTop 2
SYMATTR InstName R7
SYMATTR Value 10k
SYMBOL res 1504 16 R90
WINDOW 0 0 56 VBottom 2
WINDOW 3 32 56 VTop 2
SYMATTR InstName R8
SYMATTR Value 10k
SYMBOL cap 1216 128 R90
WINDOW 0 0 32 VBottom 2
WINDOW 3 32 32 VTop 2
SYMATTR InstName C3
SYMATTR Value 4.7µ
SYMBOL cap 1856 16 R90
WINDOW 0 0 32 VBottom 2
WINDOW 3 32 32 VTop 2
SYMATTR InstName C4
SYMATTR Value 2.2n
SYMBOL cap 1872 240 R0
SYMATTR InstName C5
SYMATTR Value 2.2n
SYMBOL res 1728 144 R90
WINDOW 0 0 56 VBottom 2
WINDOW 3 32 56 VTop 2
SYMATTR InstName R9
SYMATTR Value 15k
SYMBOL res 1872 144 R90
WINDOW 0 0 56 VBottom 2
WINDOW 3 32 56 VTop 2
SYMATTR InstName R10
SYMATTR Value 15k
SYMBOL OpAmps\\LTC6078 1968 144 R0
SYMATTR InstName U4
SYMBOL OpAmps\\opamp2 816 80 R0
SYMATTR InstName U5
SYMATTR Value LMX58_LM2904
SYMBOL res -368 -16 R0
SYMATTR InstName R11
SYMATTR Value 1k
SYMBOL res -368 224 R0
SYMATTR InstName R12
SYMATTR Value 1k
SYMBOL OpAmps\\LTC6078 1456 160 R0
SYMATTR InstName U2
TEXT -392 608 Left 2 !.tran 10m
TEXT -392 728 Left 2 !.inc sloj067/TL072.301
TEXT -392 664 Left 2 !.step param R_LDR 100 100k 20k
TEXT -392 552 Left 2 !.lib snom268c/lmx58_lm2904.lib
